80
Properties=species:S:1:pos:R:3 pbc="F F F"
C       -1.41584000      -0.00000000      -0.00114975
C       -0.71282000      -1.23707000       0.01286940
C        0.71282000      -1.23707000      -0.01345226
C       -0.71282000       1.23707000      -0.01345226
C        0.71282000       1.23707000       0.01286940
C        1.41584000       0.00000000      -0.00114975
C        2.84168000       0.00000000      -0.00463155
C        3.55576000       1.21127000       0.05702926
C        3.55576000      -1.21127000      -0.07153272
C        5.04390000      -1.18628000      -0.10389416
C        1.47030000       2.43588000       0.05221296
C        2.86045000       2.41871000       0.09856592
C        1.47030000      -2.43588000      -0.05469277
C        2.86045000      -2.41871000      -0.10795180
C        5.04390000       1.18628000       0.07471052
N        5.70770000       0.00000000      -0.01868524
O        5.67879000      -2.23124000      -0.20760503
O        5.67879000       2.23124000       0.17061215
C       -1.47030000      -2.43588000       0.05221296
C       -2.86045000      -2.41871000       0.09856592
C       -2.84168000      -0.00000000      -0.00463155
C       -3.55576000      -1.21127000       0.05702926
C       -3.55576000       1.21127000      -0.07153272
C       -2.86045000       2.41871000      -0.10795180
C       -1.47030000       2.43588000      -0.05469277
C       -5.04390000      -1.18628000       0.07471052
C       -5.04390000       1.18628000      -0.10389416
N       -5.70770000      -0.00000000      -0.01868524
O       -5.67879000      -2.23124000       0.17061215
O       -5.67879000       2.23124000      -0.20760503
H        1.02565000       3.41483000       0.05166964
H        3.39451000       3.36121000       0.16367824
H        1.02565000      -3.41483000      -0.05287636
H        3.39451000      -3.36121000      -0.17689608
H        6.74012000       0.00000000      -0.02605624
H       -1.02565000      -3.41483000       0.05166964
H       -3.39451000      -3.36121000       0.16367824
H       -3.39451000       3.36121000      -0.17689608
H       -1.02565000       3.41483000      -0.05287636
H       -6.74012000      -0.00000000      -0.02605624
C        0.40377135       2.82348556       3.00554461
C        1.76151575       2.39791601       3.01243949
C        2.80437214       3.36997566       2.99037133
C        0.07454593       4.20775068       2.99037133
C        1.11740232       5.17981033       3.01243949
C        2.47514672       4.75424078       3.00554461
C        3.51814941       5.72643680       3.02233536
C        3.21460588       7.09937037       3.08886432
C        4.86639271       5.32728112       2.98107760
C        5.93792868       6.36023602       2.99549674
C        0.85410165       6.57322130       3.05079439
C        1.88270429       7.50852255       3.10920391
C        4.17586683       3.00952637       2.96116433
C        5.18105506       3.96994735       2.93605889
C        4.32022025       8.09576487       3.14523939
N        5.61464450       7.68060643       3.09010833
O        7.11484750       6.02874121       2.93064866
O        4.07214615       9.29304761       3.24774700
C        2.02481642       1.00450504       3.05079439
C        0.99621378       0.06920379       3.10920391
C       -0.63923134       1.85128955       3.02233536
C       -0.33568781       0.47835598       3.08886432
C       -1.98747464       2.25044523       2.98107760
C       -2.30213699       3.60777899       2.93605889
C       -1.29694876       4.56819997       2.96116433
C       -1.44130218      -0.51803853       3.14523939
C       -3.05901061       1.21749032       2.99549674
N       -2.73572644      -0.10288009       3.09010833
O       -1.19322808      -1.71532127       3.24774700
O       -4.23592943       1.54898514       2.93064866
H       -0.13864820       6.98614317       3.04673548
H        1.63073441       8.56210573       3.17464031
H        4.51809327       1.99024339       2.95908382
H        6.21435526       3.64465206       2.88910186
H        6.36986026       8.38455260       3.12565447
H        3.01756627       0.59158317       3.04673548
H        1.24818366      -0.98437939       3.17464031
H       -3.33543719       3.93307428       2.88910186
H       -1.63917520       5.58748295       2.95908382
H       -3.49094219      -0.80682626       3.12565447
