80
Properties=species:S:1:pos:R:3 pbc="F F F"
C       -1.41584000      -0.00000000      -0.01882489
C       -0.71282000      -1.23707000       0.00630530
C        0.71282000      -1.23707000      -0.01584849
C       -0.71282000       1.23707000      -0.01584849
C        0.71282000       1.23707000       0.00630530
C        1.41584000       0.00000000      -0.01882489
C        2.84168000       0.00000000      -0.07583232
C        3.55576000       1.21127000      -0.06462980
C        3.55576000      -1.21127000      -0.17283481
C        5.04390000      -1.18628000      -0.31407333
C        1.47030000       2.43588000       0.02468802
C        2.86045000       2.41871000       0.01007107
C        1.47030000      -2.43588000      -0.06528988
C        2.86045000      -2.41871000      -0.16374589
C        5.04390000       1.18628000      -0.16374956
N        5.70770000       0.00000000      -0.30593298
O        5.67879000      -2.23124000      -0.46200613
O        5.67879000       2.23124000      -0.14367722
C       -1.47030000      -2.43588000       0.02468802
C       -2.86045000      -2.41871000       0.01007107
C       -2.84168000      -0.00000000      -0.07583232
C       -3.55576000      -1.21127000      -0.06462980
C       -3.55576000       1.21127000      -0.17283481
C       -2.86045000       2.41871000      -0.16374589
C       -1.47030000       2.43588000      -0.06528988
C       -5.04390000      -1.18628000      -0.16374956
C       -5.04390000       1.18628000      -0.31407333
N       -5.70770000      -0.00000000      -0.30593298
O       -5.67879000      -2.23124000      -0.14367722
O       -5.67879000       2.23124000      -0.46200613
H        1.02565000       3.41483000       0.03411715
H        3.39451000       3.36121000       0.03511557
H        1.02565000      -3.41483000      -0.05387466
H        3.39451000      -3.36121000      -0.25153099
H        6.74012000       0.00000000      -0.42661810
H       -1.02565000      -3.41483000       0.03411715
H       -3.39451000      -3.36121000       0.03511557
H       -3.39451000       3.36121000      -0.25153099
H       -1.02565000       3.41483000      -0.05387466
H       -6.74012000      -0.00000000      -0.42661810
C        1.64752205       0.86962695       3.01938033
C        2.21341251      -0.43587957       3.01718887
C        3.63078276      -0.58921249       2.99263591
C        2.47951553       2.02390861       2.99263591
C        3.89688578       1.87057570       3.01718887
C        4.46277625       0.56506917       3.01938033
C        5.88034534       0.41171474       3.07806983
C        6.72055977       1.53915652       3.18219720
C        6.46000653      -0.86933099       3.06227404
C        7.94220200      -1.00454097       3.16265917
C        4.77890835       2.98096192       3.07076099
C        6.15914777       2.81437568       3.17542488
C        4.25493233      -1.86253833       2.97103887
C        5.63886514      -1.99498376       2.98278428
C        8.19737971       1.35425645       3.32926237
N        8.72974033       0.10346356       3.31495985
O        8.46101982      -2.11172424       3.13537604
O        8.94097625       2.32487013       3.48817862
C        1.33138995      -1.54626579       3.07076099
C       -0.04884947      -1.37967955       3.17542488
C        0.22995296       1.02298138       3.07806983
C       -0.61026148      -0.10446039       3.18219720
C       -0.34970823       2.30402711       3.06227404
C        0.47143315       3.42967989       2.98278428
C        1.85536597       3.29723445       2.97103887
C       -2.08708141       0.08043967       3.32926237
C       -1.83190371       2.43923710       3.16265917
N       -2.61944204       1.33123256       3.31495985
O       -2.83067795      -0.89017400       3.48817862
O       -2.35072152       3.54642037       3.13537604
H        4.44212738       4.00205707       3.05893072
H        6.79147924       3.69396834       3.27024507
H        3.70757188      -2.78798593       2.96140977
H        6.06845780      -2.98945673       2.95255591
H        9.75617155      -0.00757707       3.43920591
H        1.66817092      -2.56736094       3.05893072
H       -0.68118094      -2.25927222       3.27024507
H        0.04184049       4.42415285       2.95255591
H        2.40272641       4.22268206       2.96140977
H       -3.64587325       1.44227320       3.43920591
